Version 4.1
SHEET 1 1188 804
WIRE 496 0 496 -16
WIRE 64 16 -192 16
WIRE 320 16 64 16
WIRE 480 16 400 16
WIRE 752 16 752 0
WIRE 608 32 544 32
WIRE 736 32 608 32
WIRE 480 48 432 48
WIRE 864 48 800 48
WIRE 912 48 864 48
WIRE 1056 48 992 48
WIRE 736 64 672 64
WIRE -192 80 -192 16
WIRE 64 80 64 16
WIRE 1056 112 1056 48
WIRE 432 176 432 48
WIRE 480 176 432 176
WIRE 608 176 608 32
WIRE 608 176 544 176
WIRE 672 176 672 64
WIRE 736 176 672 176
WIRE 864 176 864 48
WIRE 864 176 800 176
WIRE -448 224 -448 176
WIRE 432 240 432 176
WIRE 480 240 432 240
WIRE 608 240 608 176
WIRE 608 240 560 240
WIRE 672 240 672 176
WIRE 736 240 672 240
WIRE 864 240 864 176
WIRE 864 240 816 240
WIRE 672 272 672 240
WIRE -192 288 -192 160
WIRE 432 288 432 240
WIRE 64 384 64 160
WIRE 432 384 432 368
WIRE 432 384 64 384
WIRE 672 384 672 352
WIRE 672 384 432 384
WIRE 1056 384 1056 192
WIRE 1056 384 672 384
WIRE 432 432 432 384
FLAG 432 432 0
FLAG -192 288 0
FLAG -448 224 0
FLAG 496 64 V+
IOPIN 496 64 BiDir
FLAG 528 0 V+
IOPIN 528 0 BiDir
FLAG 752 80 V+
IOPIN 752 80 BiDir
FLAG 784 16 V+
IOPIN 784 16 BiDir
FLAG 496 -16 0
FLAG 752 0 0
FLAG -448 96 V+
IOPIN -448 96 Out
SYMBOL OpAmps\\MAX4239 512 16 M180
SYMATTR InstName U1
SYMBOL OpAmps\\MAX4239 768 32 M180
SYMATTR InstName U2
SYMBOL res 416 0 R90
WINDOW 0 0 56 VBottom 2
WINDOW 3 32 56 VTop 2
SYMATTR InstName R1
SYMATTR Value 220
SYMBOL res 464 256 R270
WINDOW 0 -27 105 VTop 2
WINDOW 3 0 56 VBottom 2
SYMATTR InstName R2
SYMATTR Value 9k
SYMBOL res 720 256 R270
WINDOW 0 -28 109 VTop 2
WINDOW 3 0 56 VBottom 2
SYMATTR InstName R3
SYMATTR Value 99.2k
SYMBOL res 1040 96 R0
SYMATTR InstName Medidor1
SYMATTR Value 1Meg
SYMBOL res 656 256 R0
SYMATTR InstName R4
SYMATTR Value 1k
SYMBOL res 416 272 R0
SYMATTR InstName R5
SYMATTR Value 1k
SYMBOL res 48 64 R0
SYMATTR InstName R6
SYMATTR Value {gc(10m,tol)}
SYMBOL current -192 160 R180
WINDOW 0 24 80 Left 2
WINDOW 3 24 0 Left 2
SYMATTR InstName I1
SYMATTR Value 100m
SYMBOL voltage -448 80 R0
WINDOW 123 0 0 Left 0
WINDOW 39 0 0 Left 0
SYMATTR InstName V1
SYMATTR Value 3.3
SYMBOL res 1008 32 R90
WINDOW 0 0 56 VBottom 2
WINDOW 3 32 56 VTop 2
SYMATTR InstName R7
SYMATTR Value 220
SYMBOL cap 544 160 R90
WINDOW 0 0 32 VBottom 2
WINDOW 3 20 53 VTop 2
SYMATTR InstName C1
SYMATTR Value 10p
SYMBOL cap 800 160 R90
WINDOW 0 0 32 VBottom 2
WINDOW 3 20 54 VTop 2
SYMATTR InstName C2
SYMATTR Value 10p
TEXT -184 648 Left 2 !.function gc(nom, tol) (nom + nom*(gauss(tol/5)))\n.step param x 0 1000 1\n.param tol=0.05 tol2=0.1\n.tran 500u\n \n.meas TRAN Vout AVG V(out) FROM .3m TO .35m
