Version 4.1
SHEET 1 2084 1012
WIRE 736 -976 736 -1040
WIRE 736 -832 736 -896
WIRE 736 -448 736 -544
WIRE 416 -16 416 -32
WIRE -16 0 -272 0
WIRE 240 0 -16 0
WIRE 400 0 320 0
WIRE 672 0 672 -16
WIRE 528 16 464 16
WIRE 656 16 528 16
WIRE 400 32 352 32
WIRE 784 32 720 32
WIRE 832 32 784 32
WIRE 976 32 912 32
WIRE 656 48 592 48
WIRE -272 64 -272 0
WIRE -16 64 -16 0
WIRE 976 96 976 32
WIRE 352 144 352 32
WIRE 400 144 352 144
WIRE 528 144 528 16
WIRE 528 144 480 144
WIRE 592 144 592 48
WIRE 624 144 592 144
WIRE 784 144 784 32
WIRE 784 144 704 144
WIRE 352 176 352 144
WIRE 592 176 592 144
WIRE -272 272 -272 144
WIRE -16 320 -16 144
WIRE 352 320 352 256
WIRE 352 320 -16 320
WIRE 592 320 592 256
WIRE 592 320 352 320
WIRE 976 320 976 176
WIRE 976 320 592 320
WIRE 352 368 352 320
WIRE -400 592 -400 544
FLAG 352 368 0
FLAG -272 272 0
FLAG 416 48 V+
IOPIN 416 48 BiDir
FLAG 448 -16 V+
IOPIN 448 -16 BiDir
FLAG 672 64 V+
IOPIN 672 64 BiDir
FLAG 704 0 V+
IOPIN 704 0 BiDir
FLAG 416 -32 0
FLAG 672 -16 0
FLAG -400 592 0
FLAG -400 464 V+
IOPIN -400 464 Out
FLAG 736 -832 0
FLAG 736 -1120 V+
IOPIN 736 -1120 BiDir
FLAG 736 -368 0
FLAG 736 -624 V+
IOPIN 736 -624 BiDir
SYMBOL OpAmps\\MAX4239 432 0 M180
SYMATTR InstName U1
SYMBOL OpAmps\\MAX4239 688 16 M180
SYMATTR InstName U2
SYMBOL res 336 -16 R90
WINDOW 0 0 56 VBottom 2
WINDOW 3 32 56 VTop 2
SYMATTR InstName R1
SYMATTR Value 270
SYMBOL res 384 160 R270
WINDOW 0 32 56 VTop 2
WINDOW 3 0 56 VBottom 2
SYMATTR InstName R2
SYMATTR Value 9k
SYMBOL res 608 160 R270
WINDOW 0 32 56 VTop 2
WINDOW 3 0 56 VBottom 2
SYMATTR InstName R3
SYMATTR Value 99k
SYMBOL res 960 80 R0
SYMATTR InstName Medidor1
SYMATTR Value 100k
SYMBOL res 576 160 R0
SYMATTR InstName R4
SYMATTR Value 1k
SYMBOL res 336 160 R0
SYMATTR InstName R5
SYMATTR Value 1k
SYMBOL res -32 48 R0
SYMATTR InstName R6
SYMATTR Value 0.01
SYMBOL current -272 144 R180
WINDOW 0 24 80 Left 2
WINDOW 3 24 0 Left 2
SYMATTR InstName I1
SYMATTR Value 100mA
SYMBOL res 928 16 R90
WINDOW 0 0 56 VBottom 2
WINDOW 3 32 56 VTop 2
SYMATTR InstName R7
SYMATTR Value 270
SYMBOL voltage -400 448 R0
WINDOW 123 0 0 Left 0
WINDOW 39 0 0 Left 0
SYMATTR InstName V1
SYMATTR Value 3
SYMBOL res 720 -1136 R0
SYMATTR InstName R8
SYMATTR Value 25k
SYMBOL res 720 -992 R0
SYMATTR InstName R9
SYMATTR Value 5k
SYMBOL res 720 -640 R0
SYMATTR InstName R10
SYMATTR Value 2k
SYMBOL res 720 -464 R0
SYMATTR InstName R11
SYMATTR Value 1k
TEXT 1112 336 Left 2 !.tran 4
