Version 4.1
SHEET 1 2548 1540
WIRE 224 96 224 80
WIRE -208 112 -464 112
WIRE 48 112 -208 112
WIRE 208 112 128 112
WIRE 480 112 480 96
WIRE 336 128 272 128
WIRE 464 128 336 128
WIRE 208 144 160 144
WIRE 592 144 528 144
WIRE 624 144 592 144
WIRE 640 144 624 144
WIRE 784 144 720 144
WIRE 464 160 400 160
WIRE -464 176 -464 112
WIRE -208 176 -208 112
WIRE 784 208 784 144
WIRE 160 272 160 144
WIRE 208 272 160 272
WIRE 336 272 336 128
WIRE 336 272 272 272
WIRE 400 272 400 160
WIRE 464 272 400 272
WIRE 592 272 592 144
WIRE 592 272 528 272
WIRE -720 320 -720 272
WIRE 160 336 160 272
WIRE 208 336 160 336
WIRE 336 336 336 272
WIRE 336 336 288 336
WIRE 400 336 400 272
WIRE 464 336 400 336
WIRE 592 336 592 272
WIRE 592 336 544 336
WIRE 400 368 400 336
WIRE -464 384 -464 256
WIRE 160 384 160 336
WIRE 1408 400 1280 400
WIRE 1552 400 1408 400
WIRE 1744 400 1632 400
WIRE 2128 400 2128 384
WIRE 1872 416 1808 416
WIRE 2112 416 1872 416
WIRE 1280 432 1280 400
WIRE 1744 432 1696 432
WIRE 2240 432 2176 432
WIRE 2288 432 2240 432
WIRE 2416 432 2368 432
WIRE 2112 448 2064 448
WIRE 2416 464 2416 432
WIRE -208 480 -208 256
WIRE 160 480 160 464
WIRE 160 480 -208 480
WIRE 400 480 400 448
WIRE 400 480 160 480
WIRE 784 480 784 288
WIRE 784 480 400 480
WIRE 1408 496 1408 400
WIRE 160 528 160 480
WIRE 1696 544 1696 432
WIRE 1744 544 1696 544
WIRE 1872 544 1872 416
WIRE 1872 544 1808 544
WIRE 2064 544 2064 448
WIRE 2112 544 2064 544
WIRE 2240 544 2240 432
WIRE 2240 544 2176 544
WIRE 624 576 624 144
WIRE 624 576 -272 576
WIRE 624 608 208 608
WIRE 880 608 624 608
WIRE 1408 608 1408 576
WIRE 1408 608 944 608
WIRE 1696 608 1696 544
WIRE 1744 608 1696 608
WIRE 1872 608 1872 544
WIRE 1872 608 1824 608
WIRE 2064 608 2064 544
WIRE 2112 608 2064 608
WIRE 2240 608 2240 544
WIRE 2240 608 2192 608
WIRE 1696 624 1696 608
WIRE 2064 624 2064 608
WIRE -496 672 -496 624
WIRE -128 672 -496 672
WIRE 208 672 208 608
WIRE 256 672 208 672
WIRE 352 672 320 672
WIRE 96 688 -64 688
WIRE 256 688 160 688
WIRE -272 704 -272 576
WIRE -128 704 -272 704
WIRE -496 720 -496 672
WIRE 1696 720 1696 704
WIRE 1696 720 1184 720
WIRE 2064 720 2064 704
WIRE 2064 720 1696 720
WIRE 2416 720 2416 544
WIRE 2416 720 2064 720
WIRE 624 736 624 608
WIRE 656 736 624 736
WIRE 944 736 944 608
WIRE 976 736 944 736
WIRE 352 768 352 672
WIRE 400 768 352 768
WIRE 656 768 464 768
WIRE 880 768 880 608
WIRE 976 768 880 768
WIRE 400 784 352 784
WIRE -272 848 -272 704
WIRE -128 848 -272 848
WIRE 352 864 352 784
WIRE 352 864 -64 864
WIRE -128 880 -272 880
WIRE -496 1024 -496 992
WIRE -272 1024 -272 880
WIRE -272 1024 -496 1024
WIRE -496 1056 -496 1024
WIRE -496 1200 -496 1136
FLAG 160 528 0
FLAG -464 384 0
FLAG -720 320 0
FLAG 224 160 V+
IOPIN 224 160 BiDir
FLAG 256 96 V+
IOPIN 256 96 BiDir
FLAG 480 176 V+
IOPIN 480 176 BiDir
FLAG 512 112 V+
IOPIN 512 112 BiDir
FLAG 224 80 0
FLAG 480 96 0
FLAG -720 192 V+
IOPIN -720 192 Out
FLAG -112 896 V+
IOPIN -112 896 BiDir
FLAG -112 720 V+
IOPIN -112 720 BiDir
FLAG -496 1200 0
FLAG -496 912 V+
IOPIN -496 912 BiDir
FLAG -496 800 0
FLAG -496 544 V+
IOPIN -496 544 BiDir
FLAG -112 832 0
FLAG -112 656 0
FLAG -80 656 0
FLAG -80 832 0
FLAG 768 752 V+
IOPIN 768 752 BiDir
FLAG 768 784 0
FLAG 768 720 V+
IOPIN 768 720 BiDir
FLAG 1280 512 0
FLAG 1760 448 V+
IOPIN 1760 448 BiDir
FLAG 1760 384 0
FLAG 1792 384 V+
IOPIN 1792 384 BiDir
FLAG 2128 464 V+
IOPIN 2128 464 BiDir
FLAG 2128 384 0
FLAG 2160 400 V+
IOPIN 2160 400 BiDir
FLAG 1696 720 0
SYMBOL OpAmps\\MAX4239 240 112 M180
SYMATTR InstName U1
SYMBOL OpAmps\\MAX4239 496 128 M180
SYMATTR InstName U2
SYMBOL res 144 96 R90
WINDOW 0 0 56 VBottom 2
WINDOW 3 32 56 VTop 2
SYMATTR InstName R1
SYMATTR Value 220
SYMBOL res 192 352 R270
WINDOW 0 -27 105 VTop 2
WINDOW 3 0 56 VBottom 2
SYMATTR InstName R2
SYMATTR Value 8.87k
SYMBOL res 448 352 R270
WINDOW 0 -28 109 VTop 2
WINDOW 3 0 56 VBottom 2
SYMATTR InstName R3
SYMATTR Value 100k
SYMBOL res 768 192 R0
SYMATTR InstName Medidor
SYMATTR Value 1Meg
SYMBOL res 384 352 R0
SYMATTR InstName R5
SYMATTR Value 1k
SYMBOL res 144 368 R0
SYMATTR InstName R6
SYMATTR Value 1k
SYMBOL res -224 160 R0
SYMATTR InstName R7
SYMATTR Value 10
SYMBOL current -464 256 R180
WINDOW 0 24 80 Left 2
WINDOW 3 24 0 Left 2
SYMATTR InstName I1
SYMATTR Value 100µ
SYMBOL voltage -720 176 R0
WINDOW 123 0 0 Left 0
WINDOW 39 0 0 Left 0
SYMATTR InstName V1
SYMATTR Value 3
SYMBOL res 736 128 R90
WINDOW 0 0 56 VBottom 2
WINDOW 3 32 56 VTop 2
SYMATTR InstName R8
SYMATTR Value 220
SYMBOL res -512 896 R0
SYMATTR InstName R4
SYMATTR Value 10k
SYMBOL res -512 1040 R0
SYMATTR InstName R9
SYMATTR Value 5.1k
SYMBOL res -512 528 R0
SYMATTR InstName R10
SYMATTR Value 33k
SYMBOL res -512 704 R0
SYMATTR InstName R11
SYMATTR Value 5.1
SYMBOL Digital\\inv 96 624 R0
SYMATTR InstName A1
SYMBOL Digital\\and 288 624 R0
SYMATTR InstName A2
SYMBOL Digital\\or 432 720 R0
SYMATTR InstName A3
SYMBOL sbombu6\\TLV3501 -96 848 M180
WINDOW 3 0 32 Top 2
SYMATTR InstName U7
SYMBOL sbombu6\\TLV3501 -96 672 M180
WINDOW 0 17 -46 Left 2
WINDOW 3 4 37 Top 2
SYMATTR InstName U5
SYMBOL sbombu6\\SN74AUP1G80 704 752 R0
WINDOW 3 8 56 Invisible 2
SYMATTR Value BUFFER_0
SYMATTR InstName U3
SYMBOL sbombu6\\IPT004N03L 1072 752 R0
WINDOW 39 8 80 Invisible 2
SYMATTR InstName U4
SYMBOL current 1280 512 R180
WINDOW 0 24 80 Left 2
WINDOW 3 24 0 Left 2
SYMATTR InstName I2
SYMATTR Value 100m
SYMBOL res 1392 480 R0
SYMATTR InstName R12
SYMATTR Value 10m
SYMBOL res 1648 384 R90
WINDOW 0 0 56 VBottom 2
WINDOW 3 32 56 VTop 2
SYMATTR InstName R13
SYMATTR Value 220
SYMBOL OpAmps\\MAX4239 1776 400 M180
WINDOW 3 53 64 Left 2
SYMATTR InstName U6
SYMBOL res 1728 624 R270
WINDOW 0 -26 122 VTop 2
WINDOW 3 0 56 VBottom 2
SYMATTR InstName R14
SYMATTR Value 9k
SYMBOL res 1680 608 R0
WINDOW 0 -55 62 Left 2
WINDOW 3 38 62 Left 2
SYMATTR InstName R15
SYMATTR Value 1k
SYMBOL OpAmps\\MAX4239 2144 416 M180
WINDOW 3 54 72 Left 2
SYMATTR InstName U8
SYMBOL res 2096 624 R270
WINDOW 0 -25 125 VTop 2
WINDOW 3 0 56 VBottom 2
SYMATTR InstName R16
SYMATTR Value 98k
SYMBOL res 2048 608 R0
WINDOW 0 -59 63 Left 2
WINDOW 3 45 59 Left 2
SYMATTR InstName R17
SYMATTR Value 1k
SYMBOL res 2384 416 R90
WINDOW 0 0 56 VBottom 2
WINDOW 3 32 56 VTop 2
SYMATTR InstName R18
SYMATTR Value 220
SYMBOL res 2400 448 R0
SYMATTR InstName R19
SYMATTR Value 1Meg
SYMBOL cap 272 256 R90
WINDOW 0 0 32 VBottom 2
WINDOW 3 20 53 VTop 2
SYMATTR InstName C1
SYMATTR Value 10p
SYMBOL cap 528 256 R90
WINDOW 0 0 32 VBottom 2
WINDOW 3 20 54 VTop 2
SYMATTR InstName C2
SYMATTR Value 10p
SYMBOL cap 2176 528 R90
WINDOW 0 6 9 VBottom 2
WINDOW 3 16 0 VTop 2
SYMATTR InstName C3
SYMATTR Value 10p
SYMBOL cap 1808 528 R90
WINDOW 0 8 8 VBottom 2
WINDOW 3 18 4 VTop 2
SYMATTR InstName C4
SYMATTR Value 10p
TEXT 928 0 Left 2 !.tran 500u
TEXT -240 720 Left 2 ;Vmin
TEXT -240 824 Left 2 ;Vmax
TEXT -616 656 Left 2 ;0.46mV
TEXT -560 1024 Left 2 ;1V
TEXT 632 832 Left 2 ;SN74AUP1G79
